Entering fmi2GetTypesPlatform
Entering fmi2GetVersion
Entering fmi2Instantiate 
Instantiating
Redirecting cout here
Redirecting cerr here
Entering CosimFMU() 
CosimFMU(): instance name: TestInSimulink/OpenFAST FMU/FMU, location: file:///C:/Users/larsi/OpenFAST/OpenFASTFMU2PF_Export/slprj/_fmu/692be8d4b883339e78e9a0c689bb78e9/fast/resources
CosimFMU(): Current working directory is C:\Users\larsi\OpenFAST\OpenFASTFMU2PF_Export
CosimFMU(): Read directory C:/Workspace/FASTFMU/FASTFMU2TOPS/TOPS_LAH from file C:/Users/larsi/OpenFAST/OpenFASTFMU2PF_Export/slprj/_fmu/692be8d4b883339e78e9a0c689bb78e9/fast/resources/wd.txt
CosimFMU(): Directory path is empty or invalid, keeping current working directory C:\Users\larsi\OpenFAST\OpenFASTFMU2PF_Export
CosimFMU(): SetCurrentDirectory failed 
CosimFMU(): Changed working directory to C:/Workspace/FASTFMU/FASTFMU2TOPS/TOPS_LAH
Logger: Opening log file 
CosimFMU(): Initialised logger
CosimFMU(): Fortran cosim object initialised
Entering VariableRegistry.
VariableRegistry: Parsing model description: C:/Users/larsi/OpenFAST/OpenFASTFMU2PF_Export/slprj/_fmu/692be8d4b883339e78e9a0c689bb78e9/fast/resources/../modelDescription.xml.
VariableRegistry: Model description parsed.
VariableRegistry: Parsing variable testNr, value reference: 0
VariableRegistry: Parsing variable timeStart, value reference: 1
VariableRegistry: Parsing variable Mode, value reference: 2
VariableRegistry: Parsing variable GenSpdOrTrq, value reference: 3
VariableRegistry: Parsing variable GenPwr, value reference: 4
VariableRegistry: Parsing variable ElecPwrCom, value reference: 5
VariableRegistry: Parsing variable Time, value reference: 6
VariableRegistry: Parsing variable HSShftTq, value reference: 7
VariableRegistry: Parsing variable GenTq, value reference: 8
VariableRegistry: Parsing variable Wind1VelX, value reference: 9
VariableRegistry: Parsing variable RtVAvgxh, value reference: 10
VariableRegistry: Parsing variable BldPitch1, value reference: 11
VariableRegistry: Parsing variable NacYaw, value reference: 12
VariableRegistry: Parsing variable RefGenSpd, value reference: 13
VariableRegistry: Parsing variable GenSpeed, value reference: 14
VariableRegistry: Parsing variable RotSpeed, value reference: 15
VariableRegistry: Parsing variable LSSGagPxa, value reference: 16
VariableRegistry: Parsing variable Azimuth, value reference: 17
VariableRegistry: Parsing variable GenAccel, value reference: 